OPT_V8/My_Campus_24/powerflow_results_t19.txt
Pandapower Network Debug Info
==================================================

BUS:
       vm_pu  va_degree      p_mw    q_mvar
0   0.992916   0.129727  0.000892  0.001062
1   0.988148   0.198406  0.001740  0.002395
2   0.984162   0.248991  0.002236  0.002693
3   0.989448   0.224602  0.002013  0.004006
4   0.989785   0.265600  0.002547  0.005173
5   0.992488   0.105926  0.003599  0.004904
6   0.990823   0.117912  0.001064  0.001066
7   0.997482   0.025858  0.001799  0.002034
8   0.997881   0.040644  0.002318  0.002597
9   0.999885   0.000483  0.011513  0.008940
10  0.999872   0.000514  0.010628  0.008517
11  0.999861   0.000551  0.012484  0.011064
12  0.999770   0.001351  0.009216  0.006365
13  0.999740   0.001470  0.012868  0.011767
14  0.999751   0.001422  0.014143  0.011011
15  0.999929   0.000415  0.000000  0.000000
16  0.999929   0.000422  0.000000  0.000000
17  0.999775   0.001368  0.000000  0.000000
18  0.999775   0.001377  0.000000  0.000000
19  1.000000   0.000000 -0.041654 -0.043776
20  1.000000   0.000006  0.000000  0.000000
21  1.000000   0.000000 -0.047695 -0.050009
22  1.000000   0.000007  0.000000  0.000000
--------------------------------------------------

LINE:
    p_from_mw  q_from_mvar   p_to_mw  q_to_mvar         pl_mw       ql_mvar  i_from_ka   i_to_ka      i_ka  vm_from_pu  va_from_degree  vm_to_pu  va_to_degree  loading_percent
0    0.041644     0.039776 -0.041641  -0.039774  3.243876e-06  2.529304e-06   0.002217  0.002217  0.002217    1.000000        0.000006  0.999929      0.000415         0.963726
1    0.047685     0.046009 -0.047673  -0.045999  1.181025e-05  9.208647e-06   0.002550  0.002550  0.002550    1.000000        0.000007  0.999775      0.001368         1.108880
2    0.034626     0.028522 -0.034625  -0.028521  1.556437e-06  1.213580e-06   0.001727  0.001727  0.001727    0.999929        0.000415  0.999885      0.000483         0.750788
3    0.009216     0.006365 -0.009216  -0.006365  4.340392e-08  3.384275e-08   0.000431  0.000431  0.000431    0.999775        0.001368  0.999770      0.001351         0.187481
4    0.027012     0.022778 -0.027012  -0.022777  6.829764e-07  5.325279e-07   0.001360  0.001360  0.001360    0.999775        0.001368  0.999751      0.001422         0.591441
5    0.007005     0.010252 -0.006932  -0.010196  7.211913e-05  5.623247e-05   0.017923  0.017923  0.017923    0.999929        0.000422  0.992916      0.129727         7.792621
6    0.004710     0.006006 -0.004665  -0.005971  4.521778e-05  3.525705e-05   0.011019  0.011019  0.011019    0.999775        0.001377  0.992488      0.105926         4.791003
7    0.001804     0.002038 -0.001799  -0.002034  5.006938e-06  3.903992e-06   0.003929  0.003929  0.003929    0.999775        0.001377  0.997482      0.025858         1.708404
8    0.004920     0.007813 -0.004906  -0.007802  1.466496e-05  1.143451e-05   0.013330  0.013330  0.013330    0.999775        0.001377  0.997881      0.040644         5.795710
9   -0.023112    -0.019580  0.023112   0.019581  3.173927e-07  2.474763e-07   0.001166  0.001166  0.001166    0.999872        0.000514  0.999885      0.000483         0.506982
10  -0.012484    -0.011064  0.012484   0.011064  1.361267e-07  1.061403e-07   0.000642  0.000642  0.000642    0.999861        0.000551  0.999872      0.000514         0.279195
11   0.012868     0.011767 -0.012868  -0.011767  1.487735e-07  1.160012e-07   0.000671  0.000671  0.000671    0.999751        0.001422  0.999740      0.001470         0.291876
12  -0.003988    -0.005097  0.004013   0.005117  2.537599e-05  1.978607e-05   0.009453  0.009453  0.009453    0.988148        0.198406  0.992916      0.129727         4.109981
13  -0.002013    -0.004006  0.002027   0.004017  1.371204e-05  1.069151e-05   0.006541  0.006541  0.006541    0.989448        0.224602  0.992916      0.129727         2.843918
14  -0.002236    -0.002693  0.002248   0.002702  1.144375e-05  8.922877e-06   0.005134  0.005134  0.005134    0.984162        0.248991  0.988148      0.198406         2.232075
15   0.002588     0.005205 -0.002547  -0.005173  4.128988e-05  3.219440e-05   0.008408  0.008408  0.008408    0.997881        0.040644  0.989785      0.265600         3.655712
16  -0.001064    -0.001066  0.001066   0.001067  2.010173e-06  1.567365e-06   0.002193  0.002193  0.002193    0.990823        0.117912  0.992488      0.105926         0.953572
--------------------------------------------------

TRAFO:
    p_hv_mw  q_hv_mvar   p_lv_mw  q_lv_mvar    pl_mw  ql_mvar   i_hv_ka   i_lv_ka  vm_hv_pu  va_hv_degree  vm_lv_pu  va_lv_degree  loading_percent
0  0.007015   0.011252 -0.007005  -0.010252  0.00001    0.001  0.000510  0.017923  0.999929      0.000415  0.999929      0.000422         0.132603
1  0.011445   0.016856 -0.011435  -0.015857  0.00001    0.001  0.000784  0.028224  0.999775      0.001368  0.999775      0.001377         0.203790
2  0.041654   0.043776 -0.041644  -0.039776  0.00001    0.004  0.000498  0.002217  1.000000      0.000000  1.000000      0.000006         0.151068
3  0.047695   0.050009 -0.047685  -0.046009  0.00001    0.004  0.000570  0.002550  1.000000      0.000000  1.000000      0.000007         0.172766
--------------------------------------------------
